.subckt c77 p n
C1 p n 
+ (v(p,n)^0)*(160.81510441675923) +
+ (v(p,n)^1)*(-69.57238803687939) +
+ (v(p,n)^2)*(-94.27171133531596) +
+ (v(p,n)^3)*(16.317852164035624) +
+ (v(p,n)^4)*(137.61279522029344) +
+ (v(p,n)^5)*(13.831752427306117) +
+ (v(p,n)^6)*(-110.4237865973848) +
+ (v(p,n)^7)*(-18.9513515998631) +
+ (v(p,n)^8)*(52.075939432713014) +
+ (v(p,n)^9)*(9.974606848484699) +
+ (v(p,n)^10)*(-15.231645687979135) +
+ (v(p,n)^11)*(-2.9746764150138274) +
+ (v(p,n)^12)*(2.838968176394736) +
+ (v(p,n)^13)*(0.548986031160293) +
+ (v(p,n)^14)*(-0.3372881302555919) +
+ (v(p,n)^15)*(-0.06390154632516254) +
+ (v(p,n)^16)*(0.024707257851585604) +
+ (v(p,n)^17)*(0.004569916005862116) +
+ (v(p,n)^18)*(-0.0010164157292507814) +
+ (v(p,n)^19)*(-0.00018343042005725935) +
+ (v(p,n)^20)*(1.7957535260406674e-05) +
+ (v(p,n)^21)*(3.1642005544231343e-06) +
.ends
